fluoroligand-3D-multipolar-halogen2
 OpenBabel11232111393D

 16 16  0  0  1  0  0  0  0  0999 V2000
   -2.4137   13.1706   -8.2197 C   0  0  0  0  0  0  0  0  0  0  0  0
   -2.6503   12.8543   -6.7166 C   0  0  0  0  0  0  0  0  0  0  0  0
   -2.7618   14.1779   -5.8986 C   0  0  0  0  0  0  0  0  0  0  0  0
   -3.9029   12.2757   -6.6161 F   0  0  0  0  0  0  0  0  0  0  0  0
   -0.2555    9.8108   -5.1199 C   0  0  0  0  0  0  0  0  0  0  0  0
   -0.7095    9.7231   -6.4545 C   0  0  0  0  0  0  0  0  0  0  0  0
   -1.5496   10.7135   -6.9985 C   0  0  0  0  0  0  0  0  0  0  0  0
   -1.8939   11.8690   -6.2893 C   0  0  0  0  0  0  0  0  0  0  0  0
   -1.6007   11.9704   -4.8666 C   0  0  0  0  0  0  0  0  0  0  0  0
   -0.6539   10.9254   -4.3506 C   0  0  0  0  0  0  0  0  0  0  0  0
    0.4485    8.6490   -4.5035 C   0  0  0  0  0  0  0  0  0  0  0  0
    0.4711    8.7093   -2.9464 C   0  0  2  0  0  0  0  0  0  0  0  0
   -0.8326    9.1979   -2.4607 N   0  0  0  0  0  0  0  0  0  0  0  0
    1.4392    9.1805   -1.8200 C   0  0  0  0  0  0  0  0  0  0  0  0
    2.3905    7.9579   -1.7732 C   0  0  0  0  0  0  0  0  0  0  0  0
    2.1528    7.1589   -0.5646 N   0  3  0  0  0  0  0  0  0  0  0  0
  1  2  1  0  0  0  0
  2  3  1  0  0  0  0
  2  4  1  0  0  0  0
  2  8  1  0  0  0  0
  5  6  1  0  0  0  0
  5 10  2  0  0  0  0
  5 11  1  0  0  0  0
  6  7  2  0  0  0  0
  7  8  1  0  0  0  0
  8  9  2  0  0  0  0
  9 10  1  0  0  0  0
 11 12  1  0  0  0  0
 12 13  1  6  0  0  0
 12 14  1  0  0  0  0
 14 15  1  0  0  0  0
 15 16  1  0  0  0  0
M  CHG  1  16   1
M  END
$$$$
